<?xml version="1.0" encoding="UTF-8"?>

<mule xmlns:ee="http://www.mulesoft.org/schema/mule/ee/core" xmlns="http://www.mulesoft.org/schema/mule/core"
	xmlns:doc="http://www.mulesoft.org/schema/mule/documentation"
	xmlns:xsi="http://www.w3.org/2001/XMLSchema-instance" xsi:schemaLocation="http://www.mulesoft.org/schema/mule/core http://www.mulesoft.org/schema/mule/core/current/mule.xsd
http://www.mulesoft.org/schema/mule/ee/core http://www.mulesoft.org/schema/mule/ee/core/current/mule-ee.xsd">
	<flow name="imp_flowFlow" doc:id="28d81da0-7af4-434e-9fa3-424fec1d6fb8" >
		<logger level="INFO" doc:name="Logger" doc:id="85880ae3-8e12-41a3-be75-f19e831bb057" />
		<ee:transform doc:name="Transform Message" doc:id="64d9e0c0-e65f-4ee5-97a2-2908d1602ae0" >
			<ee:message >
				<ee:set-payload ><![CDATA[%dw 2.0
output application/json
---
{
	"message": "data inserted successfully"
}]]></ee:set-payload>
			</ee:message>
		</ee:transform>
	</flow>
</mule>
